# generated using CrysX
data_Structure
_symmetry_space_group_name_H-M   'P 1'
_cell_length_a   12.55133497
_cell_length_b   12.55133497
_cell_length_c   15.00000000
_cell_angle_alpha   90.00000000
_cell_angle_beta   90.00000000
_cell_angle_gamma   120.00000000
_symmetry_Int_Tables_number   1
_cell_volume   2046.45279445
loop_
 _symmetry_equiv_pos_site_id
 _symmetry_equiv_pos_as_xyz
  1  'x, y, z'
loop_
 _atom_site_type_symbol
 _atom_site_label
 _atom_site_symmetry_multiplicity
 _atom_site_fract_x
 _atom_site_fract_y
 _atom_site_fract_z
 _atom_site_occupancy
  B  B0  1  0.06666666  0.13333330  0.50000000  1
  N  N1  1  0.13333330  0.06666666  0.50000000  1
  B  B2  1  0.26666670  0.13333330  0.50000000  1
  B  B3  1  0.06666666  0.33333330  0.50000000  1
  B  B4  1  0.26666670  0.33333330  0.50000000  1
  N  N5  1  0.33333330  0.06666666  0.50000000  1
  N  N6  1  0.13333330  0.26666670  0.50000000  1
  N  N7  1  0.33333330  0.26666670  0.50000000  1
  B  B8  1  0.06666666  0.53333330  0.50000000  1
  B  B9  1  0.26666670  0.53333330  0.50000000  1
  N  N10  1  0.13333330  0.46666670  0.50000000  1
  N  N11  1  0.33333330  0.46666670  0.50000000  1
  B  B12  1  0.06666666  0.73333330  0.50000000  1
  B  B13  1  0.26666670  0.73333330  0.50000000  1
  N  N14  1  0.13333340  0.66666670  0.50000000  1
  N  N15  1  0.33333330  0.66666670  0.50000000  1
  B  B16  1  0.06666667  0.93333330  0.50000000  1
  B  B17  1  0.26666670  0.93333330  0.50000000  1
  N  N18  1  0.13333330  0.86666660  0.50000000  1
  N  N19  1  0.33333330  0.86666660  0.50000000  1
  B  B20  1  0.46666670  0.13333330  0.50000000  1
  B  B21  1  0.46666660  0.33333330  0.50000000  1
  N  N22  1  0.53333340  0.06666666  0.50000000  1
  N  N23  1  0.53333340  0.26666670  0.50000000  1
  B  B24  1  0.46666670  0.53333330  0.50000000  1
  N  N25  1  0.53333340  0.46666670  0.50000000  1
  B  B26  1  0.46666670  0.73333330  0.50000000  1
  N  N27  1  0.53333340  0.66666670  0.50000000  1
  B  B28  1  0.46666670  0.93333330  0.50000000  1
  N  N29  1  0.53333330  0.86666660  0.50000000  1
  B  B30  1  0.66666660  0.13333330  0.50000000  1
  B  B31  1  0.66666660  0.33333330  0.50000000  1
  N  N32  1  0.73333330  0.06666666  0.50000000  1
  N  N33  1  0.73333330  0.26666670  0.50000000  1
  B  B34  1  0.66666660  0.53333330  0.50000000  1
  N  N35  1  0.73333330  0.46666670  0.50000000  1
  B  B36  1  0.66666660  0.73333330  0.50000000  1
  N  N37  1  0.73333330  0.66666670  0.50000000  1
  B  B38  1  0.66666670  0.93333330  0.50000000  1
  N  N39  1  0.73333330  0.86666660  0.50000000  1
  B  B40  1  0.86666670  0.13333330  0.50000000  1
  B  B41  1  0.86666670  0.33333330  0.50000000  1
  N  N42  1  0.93333330  0.06666666  0.50000000  1
  N  N43  1  0.93333330  0.26666670  0.50000000  1
  B  B44  1  0.86666660  0.53333330  0.50000000  1
  N  N45  1  0.93333330  0.46666670  0.50000000  1
  B  B46  1  0.86666670  0.73333330  0.50000000  1
  N  N47  1  0.93333330  0.66666670  0.50000000  1
  B  B48  1  0.86666670  0.93333330  0.50000000  1
  N  N49  1  0.93333330  0.86666660  0.50000000  1
